/*---------------------------------------------------------------------------*\
| =========                 |                                                 |
| \\      /  F ield         | OpenFOAM: The Open Source CFD Toolbox           |
|  \\    /   O peration     | Version:  1.4                                   |
|   \\  /    A nd           | Web:      http://www.openfoam.org               |
|    \\/     M anipulation  |                                                 |
\*---------------------------------------------------------------------------*/

FoamFile
{
    version         2.0;
    format          ascii;

    root            "";
    case            "";
    instance        "";
    local           "";

    class           dictionary;
    object          fvSchemes;
}

// * * * * * * * * * * * * * * * * * * * * * * * * * * * * * * * * * * * * * //

ddtSchemes
{
    default Euler;
}
offCentre 0.5;

gradSchemes
{
    default         Gauss linear;
}

divSchemes
{
    default none;
    sigma Gauss vanLeer;
    b Gauss vanLeer;
    u Gauss vanLeer;
}

laplacianSchemes
{
    default         Gauss linear uncorrected;
}

interpolationSchemes
{
    default        none;
    b              linear;
    convection     linear;
    interpolate(laplacian(u)) linear;
}

snGradSchemes
{
    default         uncorrected;
}

fluxRequired
{
    default         no;
}


// ************************************************************************* //
